275
Coordinates from ORCA-job Au13-bisAsPh3-S0-opt
  Au  16.55415305102323     23.15205708954606     33.89621890425123
  Au  16.54910235575576     20.86609241654498     35.81842323676258
  Au  17.84748228963856     23.47168579627567     36.56116888585829
  Au  16.19129337545248     25.71191842821390     35.39251728863385
  Au  13.87629260443609     24.46863935886610     33.91640433104518
  Au  14.10031279553090     21.47514999923668     34.18039867142992
  Au  16.19538805082600     22.07375163937859     38.56421547080879
  Au  15.91384613089473     25.05051271770798     38.24858718992294
  Au  13.43487287722654     25.58816787878316     36.60736928160573
  Au  12.19966455173595     22.93766740862675     35.89643181514610
  Au  13.90819874909887     20.76569562221377     37.10825586020596
  Au  13.48967841250315     23.33136082839212     38.56217637693027
  Au  15.02089248985110     23.24266582160953     36.22953554377683
  Cl  17.85251455617778     23.10347344027002     31.90882141098838
  Cl  12.17753445676971     23.41961439500994     40.53671360777213
  As  17.25739928795851     18.52572050146825     35.56598370469455
  As  20.17114265359458     23.05917248791154     37.24396870245971
  As  17.42613482351963     27.84009858698589     35.32642617932974
  As  12.88375683333885     26.10121976472444     32.36975451941179
  As  12.70570487188207     20.39658974023464     32.46471004586096
  As  17.75235530368767     21.50156715760809     40.38099470637469
  As  16.57344840767938     27.08972885200854     39.45099273229790
  As  11.81864357078055     27.41783552091955     36.30827583852833
  As  9.97997062322187     22.08655676087254     35.26812464476519
  As  13.64912561120060     18.43392267276664     37.83747150160465
  C   18.83685374786709     17.84334601293291     36.45222410843549
  C   20.06648599678703     18.42607300215234     36.11552158302461
  C   21.24544884793845     17.93839374043917     36.67629061730859
  C   21.20448401119434     16.87631995569071     37.58184749373387
  C   19.98113055708703     16.30447397268988     37.92792962260422
  C   18.79678022711431     16.78479117259536     37.36587080147500
  C   17.54675519376190     18.06469678442323     33.71068074320394
  C   17.86637499534929     16.75285596279795     33.33561324309127
  C   18.08025613224242     16.44976477990581     31.99161104621389
  C   17.98803405675729     17.45240466345201     31.02223062975669
  C   17.68660016643564     18.76157183694021     31.39609498572218
  C   17.46547653311036     19.06942619124694     32.73976368401220
  C   15.80887294719738     17.31607280647711     36.12205312475476
  C   21.21035402904871     22.19487618693624     35.86143459424910
  C   20.63222315752299     22.00181227832339     34.60183819053206
  C   21.36998402235043     21.40289977510966     33.57902481817834
  C   22.68381479034793     20.99837366574687     33.81392693808656
  C   23.26620825316897     21.20005550976992     35.06849408460055
  C   22.53530470947578     21.80250694365206     36.09174817354761
  C   21.28257183687094     24.53804122527590     37.81022975889100
  C   21.34060020521855     25.65717790686455     36.96876081051452
  C   22.16865772930422     26.73082107415543     37.29170431244997
  C   22.93239571626242     26.69955227471394     38.46010088639282
  C   22.86865061325068     25.59156487570011     39.30389175053001
  C   22.04845945770019     24.50909645071990     38.98061925091705
  C   20.21992505555799     21.79088244296031     38.74615625694163
  C   19.08977773330972     27.69074522957201     34.35327355310823
  C   19.35860088578107     26.51202268402133     33.64799770692297
  C   20.54639869771520     26.38656756984701     32.92520531912188
  C   21.46491105448997     27.43566758184583     32.90735194969682
  C   21.19338142727434     28.61713200219866     33.60287529826054
  C   20.00570472550813     28.75060937135772     34.32090085802129
  C   16.62764060588117     29.45591708693860     34.61852276584212
  C   16.19236183232898     29.43107874342349     33.28650938052178
  C   15.66557790992273     30.58236138319733     32.70374183988311
  C   15.56019477760855     31.75947363603981     33.44716520423380
  C   15.98250412787106     31.78319453750197     34.77538748138323
  C   16.51715863503852     30.63535003732177     35.36292682784612
  C   17.98840429381791     28.32349697779538     37.14833653869452
  C   14.17616344434274     26.82065287657959     31.12389571787812
  C   15.46702399513793     26.28144072407623     31.09419274257084
  C   16.41032935160199     26.77949882868310     30.19334373554029
  C   16.06422416690785     27.81311083712454     29.32322352736947
  C   14.77162699089137     28.34421292379734     29.34375151051075
  C   13.82461192760069     27.84754433309794     30.23837180490035
  C   11.37022138974364     25.65204127223642     31.25004244606839
  C   11.49582573632713     24.54134974849935     30.40450467731588
  C   10.46072708558821     24.20963214989787     29.53203430331610
  C   9.29305032188515     24.97487965524658     29.50581443393305
  C   9.16209627572549     26.07386915521166     30.35352650460495
  C   10.19806026264314     26.41532427586451     31.22466384336270
  C   12.30542884563910     27.67978497368759     33.39138979420692
  C   13.18457773152389     20.95879640566331     30.67800176438325
  C   14.31882852372771     21.75882238747508     30.49926025447533
  C   14.69186590506447     22.16495511498439     29.21661078748919
  C   13.93320974581802     21.77299077729997     28.11394055677653
  C   12.80599591680237     20.96562842216063     28.28967399799425
  C   12.43259118323450     20.55242163753026     29.56783392343457
  C   12.59630658468666     18.46888497400148     32.34186508077164
  C   13.80013256605133     17.75222220021717     32.31852166140843
  C   13.78413324507610     16.36693486612823     32.16449897736607
  C   12.56968502603238     15.68919240169062     32.04411844043837
  C   11.37025163232990     16.39916730900378     32.07687811926986
  C   11.38024402650832     17.78735130963257     32.22370214162992
  C   10.83984994723863     20.99096854162673     32.64835035792184
  C   17.23349862951038     22.30599054123209     42.06103085290114
  C   16.00091470125425     22.96367649543912     42.14681130746082
  C   15.59666846046285     23.53304357981539     43.35582350875936
  C   16.42229902479486     23.44770915679150     44.47658375140333
  C   17.64972624890548     22.78434087224347     44.39443861974433
  C   18.05526029724273     22.20790153060788     43.19139721736617
  C   18.10687555039478     19.65578555927874     40.84370713158602
  C   17.00347212309318     18.84103810029724     41.13120546925047
  C   17.19734979050641     17.52185905194121     41.53768778122890
  C   18.49015751223330     17.00651500830569     41.65026160944358
  C   19.58871436039613     17.81170459847224     41.35253301534304
  C   19.40101542550282     19.13538538415798     40.95020481607562
  C   19.52538242946374     22.27743167149302     40.02796650254491
  C   15.16936003601023     27.76583983878606     40.59573112187948
  C   15.33428254159312     28.96492382143271     41.30113623853718
  C   14.31279246275391     29.42665848435560     42.13004845305291
  C   13.13200192388057     28.69112728464629     42.26480819404804
  C   12.97296937661551     27.48982983623644     41.57434141085594
  C   13.99109347679043     27.02487296720415     40.73994885676485
  C   18.14891954225831     27.12976716637426     40.57281961320408
  C   18.26103728915725     26.15375655652720     41.57221372095993
  C   19.34419497859123     26.17626728743759     42.44906692821490
  C   20.32523565355046     27.16219189775659     42.32653101783873
  C   20.22076939216002     28.12779928651699     41.32640146971332
  C   19.13397995554038     28.11552767683269     40.45045859135891
  C   16.84719874065499     28.54391768352007     38.15503568607698
  C   10.19940362103362     27.13976298865018     37.32714108218307
  C   9.09383298775738     27.98552917803644     37.16667946876416
  C   7.94106387097111     27.76813805584462     37.92006923649758
  C   7.89185606877119     26.71823033441126     38.84136026973659
  C   8.99819872178352     25.88710348354554     39.01472859715912
  C   10.15279173987002     26.09563421889319     38.25785381884909
  C   12.27705173775315     29.26062975861200     36.68476208637252
  C   12.71514638137829     29.56630690645683     37.98064866559362
  C   12.99215742071575     30.88706074051861     38.32906185520799
  C   12.84423229214683     31.90678536347839     37.38671355907857
  C   12.42035335193405     31.60306708617791     36.09390707369223
  C   12.13538874900731     30.28295379789223     35.74050095274520
  C   11.20804030026761     27.42584049597466     34.43852580772132
  C   9.05608001791900     21.27242673002105     36.75879202633045
  C   9.61824915214437     21.35972329931204     38.03743914745216
  C   8.96003927638580     20.78919719600534     39.12860744531342
  C   7.74443707985730     20.13169516013089     38.94306187958752
  C   7.17642973335150     20.05361331934699     37.66848828678889
  C   7.82522142103985     20.62827498386645     36.57651648185526
  C   8.65214849967376     23.26093970997427     34.49192959116645
  C   8.30810448222124     24.40988582992183     35.21694604742960
  C   7.31669314817369     25.26495827542230     34.73903208496879
  C   6.67164488313701     24.98577827969142     33.53279767847941
  C   7.01944677003179     23.84875147126406     32.80505527141893
  C   8.00658724428461     22.98441626964759     33.28209042605364
  C   10.16069608430995     20.61649935723375     33.97471197989056
  C   13.33300251911454     18.27813776798054     39.73877178000546
  C   13.18965851469076     19.44066513508004     40.50469803626074
  C   12.94652873772542     19.34622199465110     41.87634076083629
  C   12.84582269731157     18.09367866228100     42.48139451076716
  C   12.97707658522709     16.93200092957636     41.71553254630081
  C   13.21475897757727     17.02043780288838     40.34456066206713
  C   12.29465918687697     17.30187424204319     37.04683102226311
  C   12.56913513348037     16.01893557143186     36.56082793345590
  C   11.53477754472396     15.22866126384809     36.05642175580356
  C   10.22745087994913     15.71248426648612     36.03979924528728
  C   9.95176722212013     16.99317848239053     36.52242901205362
  C   10.98153519324115     17.79028957762784     37.01951814071594
  C   15.33850702607412     17.45964535204536     37.57805158689558
  H   20.11472611969555     19.25145090951347     35.39631194406184
  H   22.20195216097704     18.38613845111866     36.39149939795811
  H   22.13165761507070     16.48759344019467     38.01291070344084
  H   19.94425816109539     15.46965114115782     38.63348261250088
  H   17.85068469495473     16.31309506128134     37.64572040616736
  H   17.96946605366557     15.96355953721115     34.08796053708862
  H   18.33429466044580     15.42660072074714     31.69935352699154
  H   18.16488825202418     17.20985838184474     29.97033196527258
  H   17.63040101328049     19.55739838099648     30.64791461049028
  H   17.24277802944929     20.10471026150078     33.02346151192754
  H   16.16526554886321     16.28983284256921     35.92672666077385
  H   14.99950889272620     17.50030483462332     35.39297995892333
  H   19.60538113305945     22.32800704915412     34.40095345332240
  H   20.90976579823826     21.26784866730373     32.59609744213976
  H   23.26581902003296     20.53403149111572     33.01250141024377
  H   24.30297432787240     20.89935074391961     35.24614586825418
  H   23.01348832987689     21.97923220017936     37.06116541918267
  H   20.75198488026441     25.68944987286319     36.04480293562042
  H   22.22260013078308     27.59164650216502     36.61872678958140
  H   23.58603839709371     27.53990829134200     38.71108288823711
  H   23.46874515513485     25.56180730827261     40.21783574431564
  H   22.02346161616736     23.64656326484738     39.65309749842555
  H   21.28226025195016     21.56220237324550     38.93894191329781
  H   19.78118578630129     20.86055450121404     38.34307323189556
  H   18.63998939283764     25.68421455044265     33.64767873689795
  H   20.74094105009453     25.46370271955546     32.37138716882168
  H   22.39490700226465     27.34027435166047     32.33943070675433
  H   21.90641269425013     29.44635234655122     33.57365442136737
  H   19.79306484535732     29.69283632435497     34.83714145807878
  H   16.28058234686537     28.51738227506491     32.68823054426184
  H   15.34713619186297     30.55901781867309     31.65755959529503
  H   15.15503351761741     32.66481843852439     32.98586294804937
  H   15.90641114619668     32.70412380810310     35.36041459159174
  H   16.85043063565826     30.68215309808153     36.40337735557955
  H   18.61100252714922     29.23023449182493     37.05871811766426
  H   18.67579537029492     27.51267361195019     37.44996134686478
  H   15.74464470844279     25.45855042288720     31.76277782165592
  H   17.41315966042050     26.34350325767183     30.17262357370597
  H   16.80041222157001     28.20132705737857     28.61330749453452
  H   14.49597956226933     29.14212539477812     28.64788134353233
  H   12.80780776464269     28.25449243822007     30.22546844877629
  H   12.41105665172467     23.93847953499112     30.40710058798042
  H   10.57526843628140     23.35205555262934     28.86273018185920
  H   8.48491684020782     24.71775786638623     28.81493100828135
  H   8.25076595799237     26.67827417535580     30.33331134659931
  H   10.07756181405153     27.28616414348828     31.87523435618450
  H   11.97907432791682     28.43531700278866     32.65620430100578
  H   13.23885704589357     28.07349797911768     33.83238910659961
  H   14.93058156541016     22.06349752928434     31.35605089016738
  H   15.58643414390364     22.78134626032331     29.08960477632704
  H   14.22615493172609     22.08646693034876     27.10767524856256
  H   12.22193435144887     20.64380495135147     27.42245616341695
  H   11.56344013819372     19.89682159128303     29.68780012919167
  H   14.76034839960497     18.27366766505509     32.40215048146093
  H   14.72948382522623     15.81764999360160     32.12954923973619
  H   12.55813646387604     14.60289180194643     31.91649608388623
  H   10.41693043444486     15.87212030815874     31.97875358570653
  H   10.42692748215786     18.32364634591295     32.23893939672654
  H   10.28427545560532     20.57197194763884     31.79179627822639
  H   10.87774721265293     22.08169580288924     32.47631819890802
  H   15.33842375457164     23.02634998762980     41.27557261309668
  H   14.62673270626122     24.03512772965553     43.41411604849275
  H   16.10520809488519     23.88983464713820     45.42557507664274
  H   18.28914592859145     22.70304755215975     45.27837141344991
  H   19.00647567015715     21.66660212740235     43.14945186945131
  H   15.98404052332746     19.23640247777563     41.05734536023244
  H   16.33037849330448     16.90006017599619     41.77913551246007
  H   18.64215726518255     15.97446945752774     41.97956496350510
  H   20.60313584123832     17.41283761032608     41.44247983367041
  H   20.27861772742304     19.74910764563663     40.72761612698142
  H   20.14733246110718     22.06498059513184     40.91444846431126
  H   19.35773170558429     23.36952739611472     40.03420385159890
  H   16.26562739360074     29.53633971068310     41.22553527659112
  H   14.44406070026825     30.35970275327817     42.68587076918735
  H   12.33764867295656     29.05354320060783     42.92381734148066
  H   12.06116882273446     26.89642583184478     41.68677010636871
  H   13.86182374514739     26.07038396776604     40.21692199771246
  H   17.49293818911231     25.38010556623206     41.68505071823844
  H   19.41412498744679     25.42222092517653     43.23851005493550
  H   21.17185644187516     27.18202023454463     43.01884393710600
  H   20.98519297639861     28.90411563771408     41.23015241657456
  H   19.06616513204578     28.88837185667385     39.67960030747186
  H   17.01217221732061     29.46545691722928     38.73943959338897
  H   15.86136916319732     28.66684490545184     37.67137753666326
  H   9.12897475961691     28.82870965806915     36.46852857339896
  H   7.07947664718540     28.43127117845555     37.79842165625180
  H   6.98737678205755     26.55755607178019     39.43523413574976
  H   8.97703428173256     25.07296426304639     39.74484349865073
  H   11.01844097063708     25.44081191669764     38.41052048949136
  H   12.82247463344609     28.77767075775011     38.73384755789272
  H   13.31396372908072     31.11952184112501     39.34843238806003
  H   13.05234268490078     32.94414546731294     37.66451748361095
  H   12.29893476393041     32.39898230615493     35.35365665188286
  H   11.79508216140956     30.06984949546365     34.72325597553914
  H   10.41118019945698     28.18540260671918     34.36172652879478
  H   10.70633184706232     26.44990986785483     34.30999325298589
  H   10.56799534537220     21.88339901474192     38.19696360126434
  H   9.40351678842440     20.87250737030757     40.12486813816150
  H   7.22649213870460     19.68633089368273     39.79745555649161
  H   6.21355040327377     19.55398859182964     37.52721681415710
  H   7.35459032932435     20.58604595224975     35.58841964267042
  H   8.79817041275988     24.63539998393131     36.17078551854841
  H   7.04192673483376     26.14900192615876     35.32162513246492
  H   5.88825591740795     25.65339853529763     33.16251367916771
  H   6.51397960081652     23.62383765422333     31.86163349823584
  H   8.25548134316250     22.09446700949522     32.69701965524629
  H   9.14528479600391     20.22220224726901     33.79744057920572
  H   10.69984942172657     19.82409416347049     34.52415919236282
  H   13.25303999965772     20.43051028183439     40.03786894436742
  H   12.82590040057429     20.26132901070472     42.46307177151070
  H   12.65074239552028     18.01801637326030     43.55510443836988
  H   12.87901426775257     15.95013816437491     42.18786851324806
  H   13.28651043426073     16.10253976000761     39.75109360125938
  H   13.58563231400248     15.61490574733341     36.57170712846012
  H   11.75372980553800     14.22437525206553     35.68260122932413
  H   9.41787968508104     15.08523243991928     35.65574495693861
  H   8.92650872108453     17.37456923988940     36.52346469021889
  H   10.75109886050426     18.79000413933244     37.40502266289254
  H   15.20681204227259     16.46845058701588     38.04559947556712
  H   16.06326418780146     17.99857330810967     38.21433924676526
