275
Coordinates from ORCA-job Au13-bisAsPh3Cl2-T1-opt
  Au  16.49239646955126     23.24227857281101     33.90424924750069
  Au  16.48787326278725     20.83217016328544     35.64286986876039
  Au  17.79856270786597     23.60441349738514     36.49719306586119
  Au  16.12777145043982     25.77869128220400     35.41876945692774
  Au  13.84967422121872     24.55911240115363     33.93141421127616
  Au  14.17799989436841     21.41349775234864     34.13275058063304
  Au  16.09800528780641     22.08856746945575     38.54067668140389
  Au  15.73731800794492     25.21815160608111     38.27932602213237
  Au  13.41542883686154     25.73721963161552     36.76738100561901
  Au  12.16127487757540     22.91820571098545     35.91164522555342
  Au  13.89456117187098     20.79652555433768     37.06946051677698
  Au  13.45165519196815     23.34825298163094     38.52769980834848
  Au  14.96755983274071     23.29399840870806     36.21371195693235
  Cl  17.79722379672076     23.12433491323107     31.91804180787467
  Cl  12.16173915477086     23.47078801995642     40.51841032343152
  As  17.39634078693429     18.51982575862966     35.69898285559425
  As  20.08290563413939     23.04319583247490     37.18633232846289
  As  17.42593235112949     27.87866139941152     35.39176150680976
  As  12.73949904395019     26.10145344718136     32.37491640612282
  As  12.67468039774637     20.57358494661532     32.37597928616911
  As  17.68464109195153     21.63551337386222     40.35033043931351
  As  16.85040416410577     27.03102268603666     39.55475259240536
  As  11.56426304382746     27.28621885694278     36.24347048123004
  As  9.93613369334542     22.16429151417296     35.18276784793465
  As  13.68409381678740     18.45472136516869     37.80943029640908
  C   18.93533537698205     17.85161520891974     36.67300206871921
  C   20.18471275950849     18.41832251317422     36.38377979562009
  C   21.33187970876761     17.93430457962149     37.01025488636335
  C   21.24132754795909     16.89244570319147     37.93538727077059
  C   19.99819106148944     16.33772016515475     38.23597072855740
  C   18.84570913347927     16.81489512440032     37.60903637279421
  C   17.75106383422419     17.94808209150840     33.88200421820233
  C   18.14678843046928     16.63096956385072     33.61402165566339
  C   18.38663633941546     16.23194474452659     32.29972374235081
  C   18.24306051494116     17.14514282087859     31.25212606356608
  C   17.86430920072997     18.46073620124537     31.51841426188722
  C   17.61889114741565     18.86479988633095     32.83213596400439
  C   15.93129107787515     17.31970573057638     36.23407349199711
  C   21.02356013007671     22.08886949812843     35.79288904679928
  C   20.39424162030997     21.87856956005233     34.56161025041722
  C   21.06809768532470     21.20930523842378     33.53834814095257
  C   22.36875630732071     20.75124447136531     33.74524870306979
  C   23.00352420661014     20.97230470354676     34.97089560609513
  C   22.33739505440881     21.64517892625412     35.99422552766632
  C   21.27938617154275     24.49315335519275     37.63777026821492
  C   21.39484949600208     25.54195750851144     36.71517445247493
  C   22.30118939182443     26.57539849096498     36.94549025083830
  C   23.08782880844890     26.57303085833872     38.09928740738943
  C   22.96285101571574     25.53836028982884     39.02547214874165
  C   22.06074685801659     24.49750827860805     38.79814313888525
  C   20.14690197413188     21.83091360468985     38.72853382062819
  C   19.00413416939102     27.72156232563841     34.28083078418767
  C   19.22523327837489     26.53775251797802     33.56821183680555
  C   20.35891035561941     26.40806117223697     32.76353431567200
  C   21.27012255426243     27.45988809229502     32.66889742548381
  C   21.04462151373184     28.64754562842706     33.37027024281129
  C   19.91161438812086     28.78332608815123     34.17169382267849
  C   16.64475224174402     29.56290395160787     34.84677778678822
  C   16.02332042729860     29.61561158568556     33.59158972926740
  C   15.48606622603776     30.81597735425629     33.13025810241052
  C   15.55289967773742     31.96493930301955     33.92075126292950
  C   16.16330169519527     31.91282636946959     35.17279007239897
  C   16.71177393553879     30.71581066650253     35.63675789045000
  C   18.18562014768683     28.22709205118672     37.17239580755518
  C   14.06719036137418     26.93395724688721     31.24280360728149
  C   15.37456416542545     26.43476865300998     31.23771349141455
  C   16.33938627287978     27.01464803164162     30.41180027595761
  C   15.99992451719438     28.09238101837263     29.59469617496561
  C   14.69275852152676     28.58671537533669     29.59266770884700
  C   13.72315400877658     28.00683695269231     30.40946097527124
  C   11.37624486345861     25.52933239540923     31.12593420745007
  C   11.74339827766442     24.60315016729556     30.14006635805082
  C   10.81594999922377     24.20543236725668     29.17877291004707
  C   9.51908407860805     24.72253286387764     29.19863172398829
  C   9.14922649712063     25.63510604281754     30.18566000761518
  C   10.07328682817102     26.03921514567272     31.15094872180163
  C   11.92790753974869     27.60748330107707     33.33739678859840
  C   13.25034436464999     21.09171647847120     30.60443021840621
  C   14.42375961666818     21.84076614203405     30.46562681483802
  C   14.88325050913154     22.18880187168388     29.19399552446283
  C   14.17239383655897     21.78794784979415     28.06274846948251
  C   13.00604548498750     21.02985241581719     28.19995496825700
  C   12.54570370825490     20.67580414572493     29.46733817541049
  C   12.53557787912979     18.64823195909631     32.25810407513144
  C   13.72765413186840     17.91503862527277     32.33007879813672
  C   13.70601230737785     16.53028088264170     32.17465562445062
  C   12.49560365873444     15.86867893907825     31.96067136547876
  C   11.30649711024477     16.59436718569086     31.90018734566258
  C   11.32355273327909     17.98260290167329     32.04559207578686
  C   10.81907100401652     21.20137785926862     32.51315525749077
  C   17.12662115533643     22.50134951211604     41.98537205977132
  C   15.89117897093700     23.15651099191107     42.02895250573128
  C   15.46692170253794     23.76610747364278     43.21121303485587
  C   16.27520210702228     23.72168231824810     44.34685294924189
  C   17.50447896335335     23.05748530551863     44.30732448272886
  C   17.93026934854939     22.44133148280840     43.13149983025590
  C   17.99660235390922     19.80449543388045     40.88998841144421
  C   16.87460508013751     19.02773094909130     41.20942357760666
  C   17.03940631334547     17.72710188558299     41.68247652994098
  C   18.32111215393169     17.19341994040898     41.83164657955222
  C   19.43772837762787     17.96062012395879     41.50212413323520
  C   19.27971289203171     19.26515400947202     41.03085954525535
  C   19.46978569560461     22.36911141770354     39.99679347023953
  C   15.57280365297510     27.80857752900376     40.78509089249245
  C   15.91006991645331     28.93706670086297     41.54407566185638
  C   14.97563597164221     29.48914899026678     42.41924463958748
  C   13.70920897913752     28.91330253921628     42.54784133268458
  C   13.37661872219488     27.78184794779736     41.80326695209438
  C   14.30639637178830     27.22768148219029     40.92125521015254
  C   18.47318634372511     26.93781035605076     40.61262552084420
  C   18.47678025502617     26.08159918928793     41.72287301409721
  C   19.59932438140680     26.01221962378058     42.54618911470097
  C   20.72687660785830     26.78592516391264     42.26399485117685
  C   20.73001025978131     27.62887551877310     41.15378388299523
  C   19.60745641998408     27.70652126417997     40.32753081334533
  C   17.17313212857612     28.50731346103527     38.29309505259462
  C   10.00080245122651     26.96237031107527     37.33476606067223
  C   8.86190009096278     27.76960878405787     37.21880108637601
  C   7.75490748624854     27.52547003687539     38.03042505332800
  C   7.78460653143643     26.48566913407154     38.96409376771708
  C   8.92514767887281     25.69320018250432     39.09265938672080
  C   10.03487344363081     25.93058852479079     38.27929523653936
  C   11.96604711801850     29.15332075250156     36.54716446831287
  C   12.66943626804972     29.47641887206241     37.71542955499272
  C   12.93608737827829     30.80912886029602     38.02365821072038
  C   12.51367772267363     31.82411699338091     37.16341459191486
  C   11.82273103137968     31.50517578761954     35.99504203404006
  C   11.54614834865902     30.17256325571894     35.68541586160421
  C   10.88893589820472     27.22172389815468     34.40012954627658
  C   9.04261657918613     21.25254388112587     36.63578506848845
  C   9.61848622992219     21.25321243618263     37.91134021563565
  C   8.97263319087621     20.60674230168112     38.96706371334040
  C   7.75672325714558     19.95978100610915     38.74961854879087
  C   7.17577763643066     19.96746777061985     37.47875423723980
  C   7.81150915288504     20.61788729554869     36.42234930800457
  C   8.56927689903295     23.35136544463919     34.49666935913390
  C   8.08688904512503     24.35296887763505     35.35034506726235
  C   7.05242496970859     25.18671770115209     34.92931475051494
  C   6.49875249477474     25.03219832356329     33.65674291464436
  C   6.98503788103630     24.04364525069189     32.80246586173915
  C   8.01898039504493     23.20278704581778     33.21838906067551
  C   10.10972502245874     20.77239550534506     33.80663602798405
  C   13.27093896177703     18.32164073984566     39.69560508184085
  C   13.07979552131750     19.49142674635138     40.43937253325620
  C   12.76778369352027     19.41127502254961     41.79810224589554
  C   12.64476634552677     18.16507133502567     42.41233929710515
  C   12.82453478850485     16.99578146494623     41.66815753055479
  C   13.13200444097685     17.07046097071612     40.31021543162706
  C   12.39300693454042     17.28197139466567     36.97261400535747
  C   12.71328527195385     15.99160820546479     36.53660766747043
  C   11.72305596598776     15.17522361691331     35.98729048562767
  C   10.41371285779966     15.64054535949388     35.87536508769652
  C   10.09189435460875     16.92785442793741     36.30915607488820
  C   11.07787428150701     17.75040921774487     36.85129606684235
  C   15.39923270126415     17.50530684192940     37.66253201841617
  H   20.27429820815070     19.22558059373124     35.64834901825999
  H   22.30458056074572     18.36754312310266     36.75999724091659
  H   22.14465298640831     16.50553746260650     38.41591180384854
  H   19.92142804731199     15.51754735756065     38.95545819557104
  H   17.88408813760982     16.35608267626721     37.85462686820497
  H   18.28707872383610     15.91204950313852     34.42837640853752
  H   18.69875532236067     15.20415713227210     32.09252978944561
  H   18.43921328519242     16.82888642791580     30.22343901045090
  H   17.76446591473948     19.18555782891109     30.70520278765464
  H   17.33316934708526     19.90436921912071     33.03230161468558
  H   16.29812572709924     16.28994393104599     36.08223809397906
  H   15.15352877857582     17.48158382690172     35.46641235289692
  H   19.37898248142278     22.24775536138530     34.38048096140371
  H   20.56788902895348     21.06188193293338     32.57719398396035
  H   22.90031616717251     20.23003306928740     32.94380302073650
  H   24.03125070446902     20.63044263012699     35.12530197280128
  H   22.85711656294832     21.83464018663011     36.93949670278256
  H   20.79283114512856     25.54949061072460     35.79931412399375
  H   22.39965176658892     27.37992908812363     36.21074923483178
  H   23.80634159087904     27.37913723822064     38.27425413812512
  H   23.57759114379074     25.53294890146929     39.93002491866148
  H   21.98593685215798     23.69286958577278     39.53533096989415
  H   21.21213415505039     21.60984623002007     38.91408195565722
  H   19.70257726972758     20.88605156504156     38.36789435371615
  H   18.51019096456539     25.70878914133145     33.62724055242961
  H   20.51493850589561     25.47989723295803     32.20613672955967
  H   22.15658388475591     27.36199809124273     32.03536951589554
  H   21.74991624589527     29.47915054032631     33.28152958051815
  H   19.73285622451512     29.72905920664999     34.69465142402056
  H   15.97278289928165     28.72346772987835     32.95714357968272
  H   15.02005438342281     30.85385392000702     32.14134959500024
  H   15.13436829557594     32.90709613638568     33.55529108091365
  H   16.22367390115028     32.81202107348535     35.79255363946601
  H   17.19681827436858     30.70209084022000     36.61670268242160
  H   18.88464617620812     29.07323417594692     37.05536650056786
  H   18.81398387987112     27.34078988741080     37.37257994646777
  H   15.65046970503844     25.58214217477099     31.86867308107301
  H   17.35558306910595     26.61030473440151     30.40930500382292
  H   16.75394721093383     28.54637423668470     28.94517230625197
  H   14.42350770627529     29.42183753274895     28.93933383582020
  H   12.69709838589288     28.38796300577857     30.37727887406885
  H   12.76057822429152     24.19849690886176     30.10252794354901
  H   11.11719227260365     23.49501524895297     28.40401379582744
  H   8.79659359944140     24.41944818284916     28.43527734876538
  H   8.13659529021781     26.04796347732949     30.20180656665939
  H   9.75996694993789     26.75950931917839     31.91169098179512
  H   11.48333256397061     28.26883329810693     32.57412012596157
  H   12.78309927297114     28.16374622440158     33.76104757565975
  H   15.00246348271842     22.14664540200456     31.34429377158243
  H   15.80881024769288     22.76400971988015     29.10043431127268
  H   14.53449866041840     22.05312973488568     27.06508809957268
  H   12.45960310613231     20.69908123815754     27.31173148394313
  H   11.64640660875312     20.05740771480036     29.55851789339594
  H   14.68434151341521     18.42506265710510     32.49108581639259
  H   14.64359185448000     15.96765959820759     32.21265989107813
  H   12.47943565365371     14.78242615462266     31.83342780238132
  H   10.35698381473759     16.07939913392884     31.72839080161250
  H   10.37985922115879     18.53280901222311     31.98269918736924
  H   10.27910537467956     20.82855099682368     31.62584614377057
  H   10.88083114240797     22.29742806624340     32.39151787021285
  H   15.24025993973564     23.18780276561566     41.14804017934144
  H   14.49456067132182     24.26598904026591     43.23587665396381
  H   15.94242001913278     24.19558759039025     45.27488319209381
  H   18.12916541823952     23.00674894651866     45.20399868493774
  H   18.88284505278455     21.90106756434958     43.12298942172493
  H   15.86360986023532     19.43844167430581     41.10939864925873
  H   16.15840324064925     17.13512756397105     41.94693840094913
  H   18.45014718684556     16.17672377785391     42.21409037999322
  H   20.44330936225019     17.54700688273405     41.61941987851451
  H   20.17118435586950     19.84857491804321     40.78341748905068
  H   20.08230817701341     22.15799395650053     40.89007791450224
  H   19.33058896477370     23.46468193296937     39.97892069692181
  H   16.90781651258816     29.38285558411646     41.47030908120498
  H   15.24104064507038     30.36874059967590     43.01289873144338
  H   12.98230175848128     29.34570558438694     43.24160472160173
  H   12.39256793821195     27.31612076827775     41.90919196908462
  H   14.03914410002423     26.33110975330170     40.34930120100817
  H   17.59456717485856     25.47839077513153     41.96483175375221
  H   19.58395064212195     25.35802894821162     43.42260970148995
  H   21.60222231946561     26.73871719373208     42.91834545176016
  H   21.60742005955932     28.24270715176045     40.93151257734511
  H   19.63055806986174     28.38460015552275     39.47019207482401
  H   17.48882719193449     29.37461866258452     38.89832762385166
  H   16.16730255278256     28.75187402711393     37.90759968897128
  H   8.83450457012038     28.60486603666961     36.51079474638664
  H   6.86797992315585     28.16031212604339     37.94481106612822
  H   6.91638578269758     26.30448249299225     39.60441241390744
  H   8.96852417879252     24.89077553974446     39.83458446072711
  H   10.93017295001823     25.31056310270313     38.40072757249298
  H   13.00054731508806     28.68590170360268     38.39871447006809
  H   13.47105803198888     31.05494888201141     38.94570549493562
  H   12.71858627768710     32.87042778453149     37.40766455805259
  H   11.48690818556409     32.29888973234436     35.32161661629037
  H   10.99442251296020     29.94673164122528     34.76790216383005
  H   10.00893241301015     27.88577729804744     34.35011519366400
  H   10.49986395503492     26.19554403461633     34.27654117699872
  H   10.56895629090836     21.76723743922454     38.09697465858250
  H   9.42574658900686     20.62066989186481     39.96234528220069
  H   7.24921028429423     19.45497562265801     39.57675379899974
  H   6.21346536899601     19.47456709515305     37.31250714717075
  H   7.33019425781320     20.64136110850602     35.43887003398486
  H   8.49985926324012     24.47797043512615     36.35722524527925
  H   6.67005290680160     25.95298421176172     35.60922810168385
  H   5.67804603133173     25.67937221095563     33.33401031528528
  H   6.55097518812945     23.91381856341611     31.80704826996802
  H   8.37661598430025     22.42910431837757     32.53366164226011
  H   9.08795272850325     20.41286762790169     33.59532709542902
  H   10.62460718498623     19.93930530881870     34.31843871916760
  H   13.16175649079861     20.47588312192402     39.96372641278630
  H   12.61159501321953     20.33284660914137     42.36621123994047
  H   12.39499825830974     18.10025698412774     43.47541797313304
  H   12.71010204392255     16.01854108126689     42.14640302911101
  H   13.24221566362917     16.14634244110985     39.73239120989834
  H   13.73181923676636     15.60249243980453     36.62350032914426
  H   11.97742217538904     14.16522963757129     35.65330146410572
  H   9.63846123057720     14.99368933208891     35.45482135945421
  H   9.06392286466921     17.29443241233969     36.23449821478886
  H   10.81125322664910     18.75531438542652     37.19777949211687
  H   15.26364413408695     16.53025367144228     38.16185193531786
  H   16.08648242623498     18.08034025245768     38.30868670565008
