275
Coordinates from ORCA-job Au13-bisSbPh3-S0-opt
  Au  16.56604974892335     23.15625448842590     33.93615984121504
  Au  16.55917127427516     20.89210989479470     35.87414795025677
  Au  17.84960393178373     23.50147847552959     36.60706104910753
  Au  16.20082605513869     25.71717758102464     35.41491156164919
  Au  13.89575661543164     24.46667422288857     33.95583901378730
  Au  14.11348864557663     21.48245472629372     34.24297130145646
  Au  16.19972627243554     22.11772266028121     38.61110865381805
  Au  15.89983888087583     25.09000732459835     38.27927688925583
  Au  13.44623756358284     25.60803331942772     36.63535346001242
  Au  12.21245382036280     22.95798072690294     35.94571116587255
  Au  13.91387574456019     20.80185178197417     37.16785801613359
  Au  13.49228579359440     23.36545468541596     38.61061899363054
  Au  15.03004931156549     23.26387006446108     36.27552544610445
  Cl  17.86003073424093     23.08824420628786     31.94912449514840
  Cl  12.18533614540678     23.45019604821406     40.58102434292449
  Sb  17.31281137024794     18.40421921071720     35.51558010272039
  Sb  20.34815208389066     23.15822701112700     37.33149774729098
  Sb  17.55726589246990     27.95923903913794     35.28825992079268
  Sb  12.78980059467557     26.13113546239286     32.25822017263449
  Sb  12.67059013180316     20.26574377204048     32.41790565877915
  Sb  17.84214416243740     21.45394709505883     40.54943045872952
  Sb  16.63885944355781     27.24817183677608     39.57333495617124
  Sb  11.71067160766925     27.55205656673796     36.32855826602419
  Sb  9.81924429406498     22.10981124849964     35.27355543054432
  Sb  13.58776902297110     18.30723307593306     37.90493307901754
  C   19.13059887241701     17.61637298048700     36.32023241498152
  C   20.34319392172326     18.13533656784722     35.84710112501465
  C   21.55090281367693     17.63295202768107     36.33177649009205
  C   21.55442647838383     16.61929703523835     37.29138114262538
  C   20.34809644254166     16.10942455619416     37.77054939561380
  C   19.13546100060202     16.60664805697540     37.28872275017026
  C   17.49797450732517     17.98988019044600     33.43133857203335
  C   17.72085649378442     16.69072779450342     32.95717770552722
  C   17.84245360616808     16.46560478419113     31.58542590395980
  C   17.75063546385184     17.53195611598934     30.68719197548893
  C   17.54365027877044     18.82834551480278     31.15905348444988
  C   17.41608008533041     19.05900420868763     32.53053036663230
  C   15.86187707474160     16.91743839106430     36.17141504652150
  C   21.43616132471052     22.15371913038057     35.79565232590874
  C   20.81001110284205     21.97019856144092     34.55657954898435
  C   21.49312562046664     21.33704993600947     33.51594636941226
  C   22.79853314289047     20.88598199294346     33.71266823888616
  C   23.42633599790601     21.07382292115692     34.94673933600333
  C   22.75052611029291     21.71046774260353     35.98835090417634
  C   21.60866577982521     24.80852513676768     37.84489596983094
  C   21.79570392442303     25.81860023126069     36.89158563993862
  C   22.62413851832710     26.90331433306173     37.18050242706885
  C   23.25938097904343     26.99063248750251     38.42045982423587
  C   23.06732683548032     25.99077022876531     39.37330267426633
  C   22.24412816913740     24.89944122262142     39.08814784356446
  C   20.61927550330948     21.84552547681854     39.04674754642937
  C   19.37840310880500     27.70000565804606     34.21030321112811
  C   19.59589423560248     26.48539100598793     33.54808910442608
  C   20.77365626961786     26.28735568421962     32.82410530431480
  C   21.73272676052261     27.29848607491667     32.76253034908526
  C   21.51327381774764     28.51326551146795     33.41665451642470
  C   20.33656850600437     28.71898012023450     34.13767389928754
  C   16.74076601632197     29.75340109178278     34.45947676284882
  C   16.26842621173836     29.72061024424941     33.14082389247034
  C   15.76223666436637     30.88089200562546     32.55443981705913
  C   15.71458147145580     32.07162180546383     33.28120637603465
  C   16.17569176823362     32.10346483151654     34.59669999125656
  C   16.68988124508594     30.94752542908129     35.18718088125776
  C   18.25565219936286     28.65334969462693     37.22900932946924
  C   14.26338456273584     26.96748110203474     30.96231748698631
  C   15.55663092493084     26.43049717992757     30.98462428701849
  C   16.54179962906778     26.94953021622212     30.14144199504820
  C   16.23741059753934     28.00325342772510     29.27954196677331
  C   14.94543052247538     28.53402293661716     29.25027337299139
  C   13.95575842464883     28.01648209057555     30.08663650964578
  C   11.24239047538826     25.53916189360040     30.90714870026583
  C   11.54682084603925     24.58406645846881     29.92826858796942
  C   10.57050941515312     24.19171850783554     29.01233480292009
  C   9.28925352939386     24.74227201862120     29.07369531753148
  C   8.98203682840565     25.68441101135770     30.05492239313755
  C   9.95507084489314     26.08329559884115     30.97347289227110
  C   11.92837636926317     27.90540085747639     33.17912318822161
  C   13.23170829568491     20.92001729685230     30.46702601607264
  C   14.35883285850987     21.74019153078356     30.33518829221856
  C   14.76249706463758     22.17313627050217     29.07011508454459
  C   14.04190636709368     21.78826009332835     27.93896320868028
  C   12.92167817085563     20.96332740902196     28.06886307639462
  C   12.51656901275805     20.52427622094084     29.32975753709378
  C   12.59308515397578     18.13803091670966     32.21034455897666
  C   13.78759562441843     17.44727615118765     31.96656510949204
  C   13.76576424354576     16.06450156384177     31.78231797461629
  C   12.55923450027080     15.36585503918189     31.84776253531193
  C   11.37139596019340     16.05093139850311     32.09979389922715
  C   11.38535193572680     17.43512778999913     32.28189263228852
  C   10.55289074788936     20.76696370095684     32.48651716474960
  C   17.24662175071042     22.30706865209067     42.41130646377799
  C   16.00972473467028     22.96055221999776     42.48054130677552
  C   15.58164999545978     23.51503551990029     43.68880387374814
  C   16.38716146941643     23.42033912800144     44.82401982505865
  C   17.61916685839568     22.76490441046543     44.75656632653329
  C   18.05004886018663     22.20425661260889     43.55367310094330
  C   18.19702311625910     19.40116463491022     41.03786152659181
  C   17.09017544762578     18.59306555454407     41.33065961798687
  C   17.27746337827121     17.25733643068324     41.68789461686859
  C   18.56505366214474     16.72101750142546     41.74530970938629
  C   19.66691617911921     17.52112625886085     41.44456745495943
  C   19.48609245048107     18.85997199416885     41.09079669364039
  C   19.87118848444075     22.21483691411568     40.32878768426232
  C   15.01302152543644     28.06179362659397     40.68854153484014
  C   15.09965767394355     29.32307934132182     41.29120428038637
  C   14.01768856359685     29.81957573327763     42.01892754942418
  C   12.85370048650188     29.05864378293528     42.15261645875192
  C   12.77022562868036     27.79755110258118     41.56212410461626
  C   13.84839101201572     27.29679955661718     40.82892004689461
  C   18.25455980849263     27.22307371604433     40.97190977623597
  C   18.19662673966263     26.30673304797475     42.03003562674728
  C   19.21753582136413     26.27522405729604     42.98021100845725
  C   20.30162643876985     27.14804015669541     42.87309805827782
  C   20.36640416873851     28.05239096269785     41.81358163047521
  C   19.34542403375600     28.09201231306813     40.86188596155525
  C   17.17717169789744     28.91474586048101     38.28314541108418
  C   9.94735670758200     27.17616738216272     37.46836040690771
  C   8.82063781291553     28.00134563903460     37.36429072524462
  C   7.68413853375421     27.72058324843224     38.12369051782478
  C   7.67216552264207     26.62539095953754     38.99116266514859
  C   8.79894176690479     25.81104758780489     39.10610914954494
  C   9.93775673235614     26.08395574132663     38.34489265150954
  C   12.16678391794404     29.59828061077721     36.75002376001235
  C   12.62904954460939     29.92850787906925     38.03091416416243
  C   12.90276491901031     31.25900884403300     38.34927103839820
  C   12.72802889596816     32.26061972043085     37.39296500830679
  C   12.27866949835625     31.93191131743645     36.11461589369692
  C   11.99730164558492     30.60319914513824     35.79106702630201
  C   10.91657762414896     27.68843379378558     34.30644832463830
  C   8.83851830625860     21.18407401072777     36.92682273575323
  C   9.43629325109367     21.26439429375899     38.19088908310799
  C   8.81740256714075     20.66995278118673     39.29288248923970
  C   7.60683331243719     19.99569590944177     39.13338325327108
  C   7.00546856932338     19.92269167667433     37.87451187634866
  C   7.61548164869832     20.51962356920547     36.77074201555300
  C   8.31818703714500     23.41235904012557     34.47919375079552
  C   7.94481655706570     24.53159317156321     35.23548902412319
  C   6.94077746223588     25.38193173997744     34.77146695438038
  C   6.31196403558793     25.12581709597825     33.55192675809945
  C   6.68964741447454     24.01839934068296     32.79328616331829
  C   7.69176275640231     23.16163553173092     33.25348612096773
  C   9.82415415606355     20.50303027583084     33.80568625403289
  C   13.29651333025170     18.13073064046633     40.01048444279778
  C   13.19738224798496     19.29772040674848     40.77849881394480
  C   13.00504559695153     19.20804155953282     42.15903185560568
  C   12.91076438176824     17.95793060479624     42.77073492528077
  C   12.99824952622630     16.79361391594264     42.00372972202253
  C   13.18734528186096     16.87634597709632     40.62379199019682
  C   12.02526681184632     17.10028116423661     37.08597150390727
  C   12.27096608223767     15.83107917845461     36.55070316941891
  C   11.21219853604732     15.06274876949190     36.06243187252224
  C   9.90911197790691     15.55688115632691     36.10831389578792
  C   9.66208917254695     16.82420835673253     36.63867415054919
  C   10.71647718917735     17.59911871790776     37.12294746199525
  C   15.33730295403599     17.04774984197614     37.60206753716230
  H   20.36209216643890     18.92561162320870     35.08816572170478
  H   22.49362086000536     18.03355573054799     35.94764608918601
  H   22.50284267429284     16.22030814571810     37.66277948887556
  H   20.34676173651717     15.31251020387449     38.51990900806636
  H   18.20203418157167     16.18851874350557     37.67862191627615
  H   17.81508658880018     15.84585303007409     33.64752795913784
  H   18.02257967024146     15.45169334615285     31.21552700911259
  H   17.85339879162798     17.34952443507869     29.61350239509040
  H   17.48716928692091     19.67317029389962     30.46640553708211
  H   17.26663549968428     20.08599996604599     32.88422082103389
  H   16.38614959622040     15.95292246032821     36.04427089528605
  H   15.05999851725952     16.93540514700843     35.41265055212580
  H   19.78814237725140     22.32656444133862     34.38003320587942
  H   20.99724790980708     21.21046772255522     32.54903686030405
  H   23.33729541389517     20.39482010260422     32.89697997424246
  H   24.45553912601614     20.73357065207752     35.09580632807207
  H   23.26568845325744     21.86619544832908     36.94213191529168
  H   21.31333244959001     25.76482476448768     35.90882537897674
  H   22.77933241919455     27.67926312005845     36.42494678711419
  H   23.91397368095424     27.83850999761090     38.64233013361824
  H   23.56725839410156     26.05289555452408     40.34423482240987
  H   22.11533241011247     24.12434657151307     39.85011565849894
  H   21.70968030209396     21.85212333016551     39.22684948615682
  H   20.37655597118563     20.83300067283479     38.67975030682273
  H   18.84880284942513     25.68312892861803     33.57799365811005
  H   20.92977123389113     25.33810749409132     32.30338651026360
  H   22.65399841455577     27.14578267470402     32.19281040120941
  H   22.25902224594244     29.31158260892662     33.35482731508895
  H   20.17202865940279     29.68472643504228     34.62723765512953
  H   16.30486361394840     28.79808382982472     32.55029986368272
  H   15.41307596419034     30.85214053898013     31.51808929308370
  H   15.32332245323218     32.98158742015926     32.81697995035444
  H   16.14483404153676     33.03584875652219     35.16792053397359
  H   17.05345742224202     31.00005856884974     36.21803078459590
  H   18.81277391387068     29.58225150399331     37.01016271702252
  H   19.01010036100045     27.91384747463108     37.55018985585300
  H   15.81038069229112     25.59533437830137     31.64842755457648
  H   17.54641044053992     26.51705629634998     30.15980055225127
  H   17.00727564971801     28.40829951613925     28.61627860311472
  H   14.70350719697669     29.34969807703430     28.56223003565326
  H   12.94373664715575     28.43193735746299     30.03597470609512
  H   12.54857233846521     24.14564127609172     29.85740770474940
  H   10.82056763387213     23.45670310022277     28.24174394388124
  H   8.52827705538122     24.44033141413140     28.34819299633505
  H   7.98035665663944     26.12104322556453     30.10405554962227
  H   9.69131276936752     26.82669438655370     31.73229317950352
  H   11.45440760773876     28.44388617137765     32.33847890995926
  H   12.79497976427132     28.51764680969462     33.48451163978502
  H   14.94460238204942     22.04267973369775     31.21132206399129
  H   15.65095271404403     22.80492308755538     28.97828170440187
  H   14.36020274939437     22.12181720050118     26.94684989537477
  H   12.36622911957338     20.64907178169996     27.18008049047824
  H   11.64829863825379     19.86181550293739     29.41142560485115
  H   14.74427248598735     17.97779717610185     31.89868714671080
  H   14.70000288647774     15.53466770478469     31.57490887779119
  H   12.54385132012780     14.28297494797639     31.69371745361672
  H   10.42297797237785     15.50792201701470     32.14691961750834
  H   10.43855439602841     17.94969667907796     32.47252978357507
  H   10.10366790903515     20.16609999018866     31.67500525662989
  H   10.49036521350342     21.81912901692738     32.15744514560322
  H   15.35984440904433     23.03493489357480     41.60008968231562
  H   14.60930098183217     24.01406711731025     43.73662830664236
  H   16.05036450415833     23.85045733401089     45.77181093489556
  H   18.24424629888439     22.67898206461088     45.65046205882366
  H   19.00924423190882     21.67641306040926     43.52437322767588
  H   16.07168906400493     18.99727148258552     41.30322502175743
  H   16.40918868145465     16.63906804241357     41.93434888861870
  H   18.71110316384434     15.67636308060188     42.03536680990539
  H   20.67778942399472     17.10599196387657     41.49377156071844
  H   20.36718335085681     19.46877103247757     40.86545511191126
  H   20.40782975200801     21.81826300399730     41.20992983782960
  H   19.78997056714755     23.30457059825848     40.48646155598114
  H   16.01131060632361     29.92484843555894     41.21290183480576
  H   14.08836679477539     30.80186889892099     42.49571107317838
  H   12.01139415171258     29.44954273406007     42.73083375606345
  H   11.86830858054173     27.18863214858701     41.67334485758624
  H   13.76849044176612     26.29916776341372     40.38060472847472
  H   17.35142614993756     25.61676005703370     42.13460372867249
  H   19.15676727016923     25.56735337721574     43.81216332925542
  H   21.09770971480311     27.12733231176132     43.62306457522076
  H   21.21338509184388     28.73940154477287     41.72812513242783
  H   19.41690495351504     28.81257640605748     40.04105250555974
  H   17.50300463341861     29.71072196350532     38.97693587544109
  H   16.22136536052937     29.26017409645949     37.85163595574609
  H   8.82019438682622     28.87592941473964     36.70491673932140
  H   6.80583334199996     28.36861061929754     38.04690938080754
  H   6.78076843996158     26.41452720312055     39.58914691276134
  H   8.80507885546830     24.96151396095217     39.79531942084269
  H   10.81803786851497     25.43964894423426     38.45564857571841
  H   12.76412216322460     29.15898455920022     38.79950723047130
  H   13.24556314254361     31.51151886426036     39.35702665740814
  H   12.93598243467920     33.30385265191219     37.64799454082814
  H   12.13630520704054     32.71417562448666     35.36337224118742
  H   11.63804941017412     30.37147141813569     34.78367544569375
  H   10.20262810165408     28.53101783082792     34.34604381120017
  H   10.30624188625304     26.77759515610945     34.17598170795556
  H   10.38287763248390     21.79898281257898     38.33581652689166
  H   9.28729976583817     20.74546943297399     40.27789107216719
  H   7.12042607522304     19.53192755036374     39.99651823335013
  H   6.04772152221053     19.40770455128636     37.75365379243316
  H   7.11942732906831     20.47157190080221     35.79546264730024
  H   8.41595646155772     24.74407242196994     36.20194484577452
  H   6.64195647041082     26.24309529199878     35.37633085316053
  H   5.51787160986279     25.78826468443648     33.19521546449906
  H   6.19645969367877     23.81102959982901     31.83913332178246
  H   7.96622551552696     22.29681099143352     32.64148235845649
  H   8.75377842838774     20.30157172884725     33.61828345661016
  H   10.20958175080537     19.62135466813744     34.34714926172165
  H   13.25546947727611     20.28838820648653     40.31144756894397
  H   12.92114337862309     20.12421106515417     42.75081087665850
  H   12.75669933010820     17.88733135247492     43.85143779298832
  H   12.90715472847497     15.81389747677073     42.48222899888160
  H   13.23317557357916     15.95396663309260     40.03472300791788
  H   13.28392922707019     15.41879122895805     36.51034759903506
  H   11.40884905708730     14.06810079293350     35.65188093278663
  H   9.08028638842895     14.94739689742584     35.73663426464699
  H   8.64058336697162     17.21275392702124     36.68931450201275
  H   10.50055503346064     18.58666271172383     37.54674032136505
  H   15.03244032791823     16.05869033866676     37.99012960201458
  H   16.09235890910328     17.43127981693772     38.31070165948461
