273
PDB File
Au    1.133000   14.546000   13.322000
 P    1.217000   14.495000   10.946000
 P    3.492000   14.874000   13.585000
 C    4.327000   13.826000   12.407000
 C    4.781000   12.511000   12.829000
 C    5.260000   11.563000   11.991000
 C    5.324000   11.830000   10.616000
 C    5.812000   10.825000    9.734000
 C    5.898000   11.084000    8.413000
 C    5.502000   12.324000    7.882000
 C    5.005000   13.272000    8.732000
 C    4.876000   13.091000   10.107000
 C    4.367000   14.058000   11.026000
 C    3.874000   15.356000   10.486000
 C    4.861000   16.381001   10.136000
 C    6.237000   16.094000   10.194000
 C    7.147000   17.087999    9.866000
 C    6.699000   18.389000    9.470000
 C    5.415000   18.673000    9.407000
 C    4.416000   17.665001    9.723000
 C    3.006000   17.952000    9.697000
 C    2.128000   16.973000    9.987000
 C    2.478000   15.641000   10.380000
 C   -0.287000   15.009000   10.084000
 C   -0.322000   15.405000    8.706000
 C   -1.530000   15.773000    8.132000
 C   -2.716000   15.773000    8.832000
 C   -2.685000   15.388000   10.145000
 C   -1.525000   15.040000   10.756000
 C   -4.014000   16.188999    8.166000
 C    1.625000   12.875000   10.168000
 C    1.763000   12.720000    8.784000
 C    2.021000   11.477000    8.298000
 C    2.225000   10.369000    9.082000
 C    2.145000   10.529000   10.461000
 C    1.838000   11.767000   10.972000
 C    2.573000    9.059000    8.465000
 C    4.166000   14.363000   15.198000
 C    5.527000   14.228000   15.468000
 C    6.001000   13.722000   16.650999
 C    5.120000   13.418000   17.667999
 C    3.762000   13.524000   17.438000
 C    3.334000   13.992000   16.215000
 C    5.594000   12.896000   19.023001
 C    4.115000   16.573999   13.300000
 C    5.436000   16.938000   13.329000
 C    5.797000   18.245001   13.145000
 C    4.844000   19.261000   12.999000
 C    3.506000   18.865000   12.987000
 C    3.161000   17.562000   13.134000
 C    5.272000   20.716999   12.844000
Au   -1.035000   13.224000   14.168000
 P   -3.411000   13.140000   14.219000
 P   -0.772000   10.865000   13.840000
 C   -1.950000   10.030000   14.888000
 C   -1.528000    9.576000   16.202999
 C   -2.366000    9.097000   17.150999
 C   -3.741000    9.033000   16.884001
 C   -4.623000    8.545000   17.889000
 C   -5.944000    8.459000   17.629999
 C   -6.475000    8.855000   16.389999
 C   -5.625000    9.352000   15.442000
 C   -4.250000    9.481000   15.623000
 C   -3.331000    9.990000   14.656000
 C   -3.871000   10.484000   13.358000
 C   -4.221000    9.496000   12.333000
 C   -4.164000    8.120000   12.620000
 C   -4.491000    7.210000   11.626000
 C   -4.887000    7.658000   10.326000
 C   -4.950000    8.942000   10.041000
 C   -4.634000    9.941000   11.049000
 C   -4.660000   11.351000   10.762000
 C   -4.370000   12.229000   11.741000
 C   -3.977000   11.879000   13.074000
 C   -4.273000   14.644000   13.705000
 C   -5.651000   14.679000   13.309000
 C   -6.225000   15.888000   12.941000
 C   -5.525000   17.073000   12.941000
 C   -4.212000   17.042000   13.326000
 C   -3.601000   15.882000   13.674000
 C   -6.191000   18.371000   12.525000
 C   -4.189000   12.732000   15.839000
 C   -5.573000   12.594000   15.994000
 C   -6.059000   12.336000   17.237000
 C   -5.275000   12.132000   18.344999
 C   -3.897000   12.212000   18.184999
 C   -3.385000   12.519000   16.947001
 C   -5.892000   11.784000   19.655001
 C    0.841000   10.191000   14.351000
 C    1.111000    8.830000   14.486000
 C    2.294000    8.356000   14.992000
 C    3.311000    9.237000   15.296000
 C    3.081000   10.596000   15.190000
 C    1.858000   11.023000   14.722000
 C    4.666000    8.764000   15.819000
 C   -1.057000   10.242000   12.140000
 C   -1.028000    8.921000   11.776000
 C   -1.212000    8.560000   10.469000
 C   -1.358000    9.513000    9.453000
 C   -1.370000   10.851000    9.849000
 C   -1.223000   11.196000   11.153000
 C   -1.513000    9.085000    7.997000
Au   -0.189000   15.392000   15.490000
 P   -0.138000   17.768000   15.575000
 P   -0.517000   15.129000   17.849001
 C    0.531000   16.306999   18.684000
 C    1.846000   15.885000   19.138000
 C    2.794000   16.723000   19.617001
 C    2.527000   18.098000   19.681000
 C    3.532000   18.980000   20.169001
 C    3.273000   20.301001   20.254999
 C    2.033000   20.832001   19.858999
 C    1.085000   19.982000   19.362000
 C    1.266000   18.607000   19.233000
 C    0.299000   17.688000   18.724001
 C   -0.999000   18.228001   18.231001
 C   -2.024000   18.577999   19.218000
 C   -1.737000   18.521000   20.594000
 C   -2.731000   18.848000   21.504000
 C   -4.031000   19.243999   21.056000
 C   -4.316000   19.306999   19.773001
 C   -3.308000   18.992001   18.773001
 C   -3.595000   19.017000   17.363001
 C   -2.616000   18.726999   16.485001
 C   -1.284000   18.334000   16.834999
 C   -0.652000   18.629999   14.070000
 C   -1.048000   20.007999   14.035000
 C   -1.416000   20.582001   12.827000
 C   -1.416000   19.882000   11.641000
 C   -1.031000   18.569000   11.672000
 C   -0.683000   17.958000   12.832000
 C   -1.832000   20.548000   10.343000
 C    1.482000   18.546000   15.982000
 C    1.637000   19.930000   16.120001
 C    2.880000   20.416000   16.379000
 C    3.988000   19.632000   16.582001
 C    3.828000   18.254000   16.502001
 C    2.590000   17.742001   16.195000
 C    5.298000   20.249001   16.930000
 C   -0.006000   13.516000   18.523001
 C    0.129000   13.246000   19.885000
 C    0.635000   12.063000   20.358000
 C    0.939000   11.046000   19.476999
 C    0.833000   11.276000   18.118999
 C    0.365000   12.499000   17.691000
 C    1.462000    9.691000   19.951000
 C   -2.217000   15.414000   18.472000
 C   -2.581000   15.385000   19.792999
 C   -3.888000   15.569000   20.153999
 C   -4.904000   15.715000   19.201000
 C   -4.508000   15.727000   17.863001
 C   -3.204000   15.580000   17.518000
 C   -6.360000   15.870000   19.629000
 H    4.746000   12.222000   13.932000
 H    5.608000   10.559000   12.405000
 H    6.127000    9.810000   10.146000
 H    6.299000   10.288000    7.702000
 H    5.598000   12.522000    6.764000
 H    4.667000   14.281000    8.325000
 H    6.590000   15.056000   10.506000
 H    8.266000   16.872999    9.911000
 H    7.458000   19.195999    9.203000
 H    5.077000   19.718000    9.102000
 H    2.643000   19.000000    9.433000
 H    1.008000   17.176001    9.928000
 H    0.639000   15.416000    8.092000
 H   -1.568000   16.091000    7.038000
 H   -3.649000   15.353000   10.752000
 H   -1.580000   14.767000   11.862000
 H   -4.732000   15.304000    8.146000
 H   -3.801000   16.530001    7.099000
 H   -4.484000   17.046000    8.752000
 H    1.658000   13.623000    8.096000
 H    2.080000   11.305000    7.173000
 H    2.333000    9.641000   11.150000
 H    1.760000   11.862000   12.105000
 H    2.216000    9.043000    7.382000
 H    2.065000    8.219000    9.045000
 H    3.703000    8.913000    8.495000
 H    6.297000   14.544000   14.689000
 H    7.120000   13.555000   16.792000
 H    3.021000   13.228000   18.252001
 H    2.204000   14.061000   16.080000
 H    6.637000   13.299000   19.242001
 H    5.623000   11.756000   19.002001
 H    4.874000   13.242000   19.837000
 H    6.241000   16.150999   13.507000
 H    6.900000   18.531000   13.108000
 H    2.683000   19.642000   12.853000
 H    2.055000   17.289000   13.117000
 H    5.573000   20.912001   11.762000
 H    6.159000   20.927999   13.528000
 H    4.404000   21.400000   13.126000
 H   -0.425000    9.612000   16.492001
 H   -1.953000    8.749000   18.155001
 H   -4.211000    8.230000   18.903999
 H   -6.655000    8.058000   18.426001
 H   -7.594000    8.759000   16.191999
 H   -6.032000    9.690000   14.433000
 H   -3.851000    7.767000   13.658000
 H   -4.446000    6.091000   11.841000
 H   -5.154000    6.899000    9.518000
 H   -5.255000    9.280000    8.996000
 H   -4.924000   11.714000    9.714000
 H   -4.429000   13.349000   11.538000
 H   -6.265000   13.718000   13.298000
 H   -7.319000   15.925000   12.623000
 H   -3.605000   18.006001   13.361000
 H   -2.496000   15.937000   13.947000
 H   -7.268000   18.382000   12.898000
 H   -6.182000   18.455000   11.388000
 H   -5.623000   19.250999   12.976000
 H   -6.261000   12.699000   15.091000
 H   -7.184000   12.277000   17.409000
 H   -3.207000   12.024000   19.073000
 H   -2.252000   12.597000   16.851999
 H   -5.955000   10.651000   19.756001
 H   -6.940000   12.230000   19.711000
 H   -5.254000   12.206000   20.500000
 H    0.332000    8.060000   14.170000
 H    2.435000    7.237000   15.159000
 H    3.895000   11.336000   15.487000
 H    1.723000   12.153000   14.653000
 H    5.446000    8.858000   14.992000
 H    4.588000    7.674000   16.145000
 H    4.976000    9.405000   16.708000
 H   -0.850000    8.116000   12.563000
 H   -1.249000    7.457000   10.183000
 H   -1.504000   11.674000    9.072000
 H   -1.240000   12.302000   11.426000
 H   -1.069000    8.044000    7.857000
 H   -0.967000    9.825000    7.323000
 H   -2.619000    9.066000    7.722000
 H    2.135000   14.782000   19.103001
 H    3.798000   16.309999   19.965000
 H    4.547000   18.568001   20.483999
 H    4.069000   21.011999   20.656000
 H    1.835000   21.951000   19.955000
 H    0.076000   20.389000   19.024000
 H   -0.699000   18.208000   20.947001
 H   -2.516000   18.802999   22.622999
 H   -4.839000   19.511000   21.815001
 H   -5.361000   19.612000   19.434999
 H   -4.643000   19.281000   17.000000
 H   -2.819000   18.787001   15.365000
 H   -1.059000   20.622000   14.996000
 H   -1.734000   21.676001   12.789000
 H   -0.996000   17.962000   10.708000
 H   -0.410000   16.853001   12.777000
 H   -2.124000   19.750000    9.583000
 H   -0.962000   21.160999    9.934000
 H   -2.722000   21.233000   10.536000
 H    0.734000   20.618000   16.014999
 H    3.052000   21.541000   16.437000
 H    4.716000   17.563999   16.690001
 H    2.495000   16.608999   16.117001
 H    5.774000   20.684000   15.990000
 H    5.986000   19.455999   17.372999
 H    5.135000   21.080999   17.693001
 H   -0.187000   14.025000   20.653999
 H    0.802000   11.922000   21.476999
 H    1.130000   10.462000   17.378000
 H    0.296000   12.634000   16.561001
 H    1.686000    9.033000   19.047001
 H    0.673000    9.186000   20.601999
 H    2.415000    9.842000   20.556999
 H   -1.794000   15.207000   20.598000
 H   -4.174000   15.606000   21.257000
 H   -5.285000   15.861000   17.040001
 H   -2.932000   15.597000   16.412001
 H   -6.756000   14.868000   20.000000
 H   -6.983000   16.219000   18.740000
 H   -6.430000   16.639999   20.466999
